


 30 34  0  0  0  0  0  0  0  0999 V2000
   -7.9803    5.1580    7.2361 C   0  0  0  0  0  0  0  0  0  0  0  0
   -6.7821    5.7585    7.3997 N   0  0  0  0  0  0  0  0  0  0  0  0
   -6.6177    6.6502    8.4127 N   0  0  0  0  0  0  0  0  0  0  0  0
   -7.6543    6.9105    9.2379 C   0  0  0  0  0  0  0  0  0  0  0  0
   -8.8975    6.3155    9.1064 C   0  0  0  0  0  0  0  0  0  0  0  0
   -9.9440    6.5903   10.0029 N   0  0  0  0  0  0  0  0  0  0  0  0
   -9.8092    7.2642   10.7082 H   0  0  0  0  0  0  0  0  0  0  0  0
  -11.1282    5.9536    9.9160 C   0  0  0  0  0  0  0  0  0  0  0  0
  -12.2127    5.9871   10.6588 N   0  0  0  0  0  0  0  0  0  0  0  0
  -13.0866    5.0795   10.0959 N   0  0  0  0  0  0  0  0  0  0  0  0
  -12.5543    4.4992    9.0258 N   0  0  0  0  0  0  0  0  0  0  0  0
  -11.3443    5.0635    8.8985 N   0  0  0  0  0  0  0  0  0  0  0  0
  -10.4108    4.7208    7.8266 C   0  0  0  0  0  0  0  0  0  0  0  0
   -9.0718    5.4080    8.0535 C   0  0  0  0  0  0  0  0  0  0  0  0
   -7.4211    7.8071   10.2469 O   0  0  0  0  0  0  0  0  0  0  0  0
   -8.1057    8.0249   10.8476 H   0  0  0  0  0  0  0  0  0  0  0  0
  -11.0402    5.1195    6.5278 C   0  0  0  0  0  0  0  0  0  0  0  0
  -11.0848    6.4637    6.1579 C   0  0  0  0  0  0  0  0  0  0  0  0
  -11.6707    6.8351    4.9474 C   0  0  0  0  0  0  0  0  0  0  0  0
  -12.2141    5.8628    4.1086 C   0  0  0  0  0  0  0  0  0  0  0  0
  -12.1707    4.5178    4.4785 C   0  0  0  0  0  0  0  0  0  0  0  0
  -11.5827    4.1470    5.6890 C   0  0  0  0  0  0  0  0  0  0  0  0
  -11.7142    8.1462    4.5863 O   0  0  0  0  0  0  0  0  0  0  0  0
  -11.3499    8.7998    5.1502 H   0  0  0  0  0  0  0  0  0  0  0  0
   -8.0450    2.3971    4.0249 C   0  0  0  0  0  0  0  0  0  0  0  0
   -8.1292    3.7648    3.7695 C   0  0  0  0  0  0  0  0  0  0  0  0
   -8.1078    4.6751    4.8269 C   0  0  0  0  0  0  0  0  0  0  0  0
   -8.0023    4.2157    6.1407 C   0  0  0  0  0  0  0  0  0  0  0  0
   -7.9192    2.8469    6.3959 C   0  0  0  0  0  0  0  0  0  0  0  0
   -7.9395    1.9376    5.3376 C   0  0  0  0  0  0  0  0  0  0  0  0
  1  2  2  0  0  0
  1 14  1  0  0  0
  1 28  1  0  0  0
  2  3  1  0  0  0
  3  4  2  0  0  0
  4  5  1  0  0  0
  4 15  1  0  0  0
  5  6  1  0  0  0
  5 14  2  0  0  0
  6  7  1  0  0  0
  6  8  1  0  0  0
  8  9  2  0  0  0
  8 12  1  0  0  0
  9 10  1  0  0  0
 10 11  2  0  0  0
 11 12  1  0  0  0
 12 13  1  0  0  0
 13 14  1  0  0  0
 13 17  1  0  0  0
 25 26  2  0  0  0
 25 30  1  0  0  0
 26 27  1  0  0  0
 27 28  2  0  0  0
 28 29  1  0  0  0
 29 30  2  0  0  0
 17 18  1  0  0  0
 17 22  2  0  0  0
 18 19  2  0  0  0
 19 20  1  0  0  0
 19 23  1  0  0  0
 20 21  2  0  0  0
 21 22  1  0  0  0
 23 24  1  0  0  0
 15 16  1  0  0  0
M  END
> <minimizedAffinity>
-4.93349

> <minimizedRMSD>
0.55697

> <CNNscore>
0.9884641767

> <CNNaffinity>
5.8885941505

$$$$
